Version 4
SHEET 1 880 680
WIRE -80 16 -224 16
WIRE -32 16 -32 -16
WIRE -32 16 -80 16
WIRE 32 16 -32 16
WIRE 416 16 288 16
WIRE 512 16 416 16
WIRE 576 16 512 16
WIRE 608 16 576 16
WIRE -224 32 -224 16
WIRE 416 32 416 16
WIRE 576 96 576 16
WIRE -80 112 -80 16
WIRE -32 112 -32 16
WIRE 32 112 -32 112
WIRE 416 112 288 112
WIRE -224 144 -224 112
WIRE 512 176 512 16
WIRE -80 208 -80 192
WIRE 32 208 -80 208
WIRE 352 208 288 208
WIRE -224 272 -224 224
WIRE 416 288 416 112
WIRE 32 304 -80 304
WIRE 352 304 352 208
WIRE 352 304 288 304
WIRE -80 336 -80 304
WIRE -80 416 -80 400
WIRE 144 416 -80 416
WIRE 352 416 352 304
WIRE 352 416 144 416
WIRE 416 416 416 368
WIRE 416 416 352 416
WIRE 512 416 512 240
WIRE 512 416 416 416
WIRE 576 416 576 176
WIRE 576 416 512 416
WIRE 144 464 144 416
FLAG -224 272 0
FLAG 144 464 0
FLAG 608 16 Out
FLAG -32 -16 In
SYMBOL PowerProducts\\LT3065 160 160 R0
SYMATTR InstName U1
SYMBOL voltage -224 128 R0
WINDOW 3 100 -242 VRight 2
WINDOW 123 0 0 Left 0
WINDOW 39 0 0 Left 0
SYMATTR InstName smps
SYMATTR Value PULSE(-2 2 0 {1/(2*Fs)} {1/(2*Fs)} 1n {1/(Fs)})
SYMBOL voltage -224 16 R0
SYMATTR InstName DC
SYMATTR Value 20
SYMBOL res -96 96 R0
SYMATTR InstName R1
SYMATTR Value 500k
SYMBOL cap -96 336 R0
SYMATTR InstName C1
SYMATTR Value 10n
SYMBOL cap 496 176 R0
SYMATTR InstName C2
SYMATTR Value 22µ
SYMBOL res 560 80 R0
SYMATTR InstName R2
SYMATTR Value 10
SYMBOL res 400 272 R0
SYMATTR InstName R3
SYMATTR Value 59k
SYMBOL res 400 16 R0
SYMATTR InstName R4
SYMATTR Value 432k
TEXT 48 -168 Left 2 !.param D=0.5\n.param Fs=250k
TEXT 144 184 Left 2 ;Maximum Current available
TEXT 360 160 Left 2 ;5V
TEXT -258 488 Left 2 !.tran 0 10m 9.5m uic
